1 0,   100.00, 33, 0, 0, 60.00     / PSS(R)E-33.7    WED, OCT 05 2016  16:23
83 0 / END OF GNE DATA, BEGIN INDUCTION MACHINE DATA
14.664094
